&RUN
iexpnr = 001
lwarmstart = .false.
startfile  = 'initd00h01m000.001'
runtime = 41400
trestart = 10800
dtmax = 10
ladaptive = .true.
irandom = 1
randthl = 0.01
randqt = 2.5e-5
nsv = 2
nprocx=6
nprocy=6
/

&DOMAIN
itot = 120
jtot = 120
kmax = 160

xsize = 6400.
ysize = 6400.

xlat = 51.967
xlon = 4.
xday = 0.
xtime = 0.
/

&PHYSICS
ps = 100000.00
thls = 300.00       ! Surface thl
lmoist = .true.
lcoriol = .false.
ltimedep = .true.
iradiation = 0      ! 4 = RRTMG
igrw_damp = 3       ! 3 = nudge (damping) to mean profile
/

&NAMSURFACE
wtsurf =  0.1
wqsurf =  0.1e-3
isurf = 2           ! 2 = Ts, 4 = thl+qt flux, calculate u*
z0mav = 0.05
z0hav = 0.01
/

&DYNAMICS
cu =  0.
cv =  0.

iadv_mom = 2
iadv_tke = 2
iadv_thl = 2
iadv_qt  = 2
iadv_sv  = 52
/

&SUBGRID
ldelta = .false.
cm = 0.12
cn = 0.76
ch1 = 1.
ch2 = 2.
ce1 = 0.19
ce2 = 0.51
/

&NAMMICROPHYSICS
imicro = 5          ! 2 = warm, 5=simpleice 
l_sb = .true.       ! true = Seiffert/Beheng, false = KK00
Nc_0 = 200e6        ! cloud droplet conventration
/

&NAMBULKMICROSTAT
lmicrostat = .false.
lascii = .false.
timeav = 300
dtav = 300
/

&NAMCHECKSIM
tcheck = 10
/

&NAMNETCDFSTATS
lnetcdf = .true.
/

&NAMTIMESTAT
ltimestat = .true.
lascii = .false.
dtav = 120
/

&NAMGENSTAT
lstat  = .true.
lascii = .false.
dtav   = 120
timeav = 120
/

&NAMBUDGET
lbudget = .false.
lascii  = .false.
dtav = 120.
timeav = 120.
/

&NAMSTATTEND
ltend  = .true.
lascii = .false.
dtav = 120
/

&NAMSAMPLING
lsampcl    = .false.
lsampco    = .false.
lsampup    = .false.
lsampbuup  = .false.
lsampcldup = .false.
dtav = 120
timeav = 120.
/

&NAMFIELDDUMP
lfielddump = .false.
dtav = 300
ldiracc = .true.
/

&NAMCROSSSECTION
lcross = .false.
dtav = 300
/
