&RUN
iexpnr     = 001
lwarmstart = .false.
startfile  = 'initd001h00mx000y000.001'
runtime    = 21600
trestart   = 3600
ladaptive  = .true.
irandom    = 1
randthl    = 0.1
randqt     = 2.5e-5
nsv        = 2
nprocx     = 24
nprocy     = 48
/

&DOMAIN
itot       = 1680
jtot       = 1680
kmax       = 128
xsize      = 336000
ysize      = 336000

xlat = 0.1 
xlon = 0.1

!xlat = 55. 
!xlon = 4.
/

&PHYSICS
!z0         = 1e-3
ps         = 100850.00
thls       = 287
lmoist     = .true.
lcoriol    = .false.
igrw_damp  = 3       ! 3 = nudge (damping) to mean profile
/

&NAMSURFACE
wtsurf     = 0.
wqsurf     = 0.
isurf      = 2      ! 2 = Ts, calculated fluxes
z0mav      = 0.4e-4
z0hav      = 0.4e-4
/

&DYNAMICS
llsadv     = .false.
lqlnr      = .false.
cu         = 0.
cv         = 0.

iadv_mom   = 52
iadv_tke   = 52
iadv_thl   = 52
iadv_qt    = 52
iadv_sv    = 52
/

&NAMMICROPHYSICS
imicro = 2          ! 2 = warm, 5=simpleice
l_sb = .true.       ! true = Seiffert/Beheng, false = KK00
Nc_0 = 300e6        ! cloud droplet conventration
/

&NAMSUBGRID
ldelta     = .false.
/

&NAMNETCDFSTATS
lnetcdf = .true.
lsync = .true.
/

&NAMBUDGET
lbudget    = .false.
dtav       = 60.
timeav     = 60.
/

&NAMCHECKSIM
tcheck     = 1
/

&NAMSAMPLING
dtav       = 60.
timeav     = 60.
lsampcl    = .false.
lsampco    = .false.
lsampup    = .false.
lsampbuup  = .false.
/

&NAMTIMESTAT
ltimestat   = .true.
dtav        = 60
/

&NAMCROSSSECTION
lcross      = .true.
lxz         = .false.
lyz         = .false.
lspan       = .false.
dtav        = 30
crossheight = 1 4 15 26 42 66 89 111
/

&NAMGENSTAT
lstat       = .true.
dtav        = 60
timeav      = 60
/

&NAMFIELDDUMP
lfielddump  = .false.
dtav        = 60
ldiracc     = .true.
/

&NAMSTATTEND
dtav = 60
ltend = .false.
/

&NAMNUDGE
lnudge = .false.
tnudgefac = 10800
/

&NAMNUDGEBOUNDARY
lnudge_boundary = .true.
lperturb_boundary = .true.

nudge_offset = 2500
nudge_width = 600
nudge_radius = 3000
nudge_tau = 5

perturb_offset = 3500
perturb_width = 600
perturb_radius = 3000
perturb_zmax = 500
perturb_blocksize = 2
perturb_ampl = 0.1

dt_input_lbc = 3600
/
