&RUN
iexpnr = 001
lwarmstart = .false.
startfile  = 'initd00h01m000.001'
runtime = 3600
trestart = 10800
dtmax = 10
ladaptive = .true.
irandom = 1
randthl = 0.01
randqt = 2.5e-5
nsv = 2
nprocx=1
nprocy=1
/

&DOMAIN
itot = 16
jtot = 16
kmax = 80

xsize = 3200.
ysize = 3200.

xlat = 51.970001220703125
xlon = 4.900000095367432
xday = 60
xtime = 6
/

&PHYSICS
ps = 100000.00
thls = 300.00       ! Surface thl
lmoist = .true.
lcoriol = .false.
ltimedep = .true.
iradiation = 4      ! 4 = RRTMG
igrw_damp = 3       ! 3 = nudge (damping) to mean profile
timerad = 10        ! Interval (sec) of radiation calls
/

&NAMSURFACE
wtsurf =  0.1
wqsurf =  0.1e-3
isurf = 2           ! 2 = Ts + q=qsat(Ts), 4 = thl+qt flux, calculate u*
z0mav = 0.001
z0hav = 0.001
albedoav = 0.24     ! Fig 4.9 MvT
/

&DYNAMICS
cu =  0.
cv =  0.

iadv_mom = 2
iadv_tke = 2
iadv_thl = 2
iadv_qt  = 2
iadv_sv  = 52
/

&NAMNUDGE
lnudge=.true.
tnudgefac=10800
/

&SUBGRID
ldelta = .false.
cm = 0.12
cn = 0.76
ch1 = 1.
ch2 = 2.
ce1 = 0.19
ce2 = 0.51
/

&NAMMICROPHYSICS
imicro = 2          ! 2 = warm, 5=simpleice 
l_sb = .true.       ! true = Seiffert/Beheng, false = KK00
Nc_0 = 200e6        ! cloud droplet conventration
/

&NAMBULKMICROSTAT
lmicrostat = .false.
lascii = .false.
timeav = 300
dtav = 300
/

&NAMCHECKSIM
tcheck = 30
/

&NAMNETCDFSTATS
lnetcdf = .true.
lsync = .true.
/

&NAMTIMESTAT
ltimestat = .true.
lascii = .false.
dtav = 1
/

&NAMGENSTAT
lstat  = .true.
lascii = .false.
dtav   = 60
timeav = 60
/

&NAMBUDGET
lbudget = .false.
lascii  = .false.
dtav    = 60.
timeav  = 60.
/

&NAMSTATTEND
ltend  = .true.
lascii = .false.
dtav   = 60
/

&NAMRADSTAT
lstat = .true.
lascii = .false.
dtav   = 60
timeav = 60.
/

&NAMSAMPLING
lsampcl    = .false.
lsampco    = .false.
lsampup    = .false.
lsampbuup  = .false.
lsampcldup = .false.
dtav   = 60
timeav = 60.
/

&NAMFIELDDUMP
lfielddump = .false.
dtav = 300
ldiracc = .true.
/

&NAMCROSSSECTION
lcross = .false.
dtav = 300
/
