&RUN
iexpnr = 001
lwarmstart = .false.
startfile  = 'initd00h01m000.001'
runtime = 10800
trestart = 999999
dtmax = 10
ladaptive = .true.
irandom = 1
randthl = 0.01
randqt = 2.5e-5
nsv = 2
nprocx=1
nprocy=1
/

&DOMAIN
itot = 8
jtot = 8
kmax = 100

xsize = 800.
ysize = 800.

xlat = 51.970001220703125
xlon = 4.900000095367432
xday = 60
xtime = 6
/

&PHYSICS
ps = 100000.00
thls = 300.00       ! Surface thl
lmoist = .true.
lcoriol = .false.
ltimedep = .true.
iradiation = 4      ! 4 = RRTMG
igrw_damp = 3       ! 3 = nudge (damping) to mean profile
timerad = 30        ! Interval (sec) of radiation calls
/

&NAMSURFACE
isurf = 1           ! 1 = LSM, 2 = Ts+q=qsat(Ts), 4 = thl+qt flux, calculate u*
l_vg  = .true.
z0mav = 4e-2
z0hav = 6.25e-6
Cskinav = 0
lambdaskinav = 10
rootfav = 0.40 0.30 0.30 0.00 
albedoav = 0.27
Qnetav = 5
cvegav = 1
Wlav = 0
rsminav = 100
rssoilminav = 50
LAIav = 2
gDav = 0
tsoildeepav = 284.00
tsoilav = 277.0060 277.9071 278.7807 281.3903
phiwav = 0.5280 0.5280 0.5280 0.5280
gammasat = 0.52e-6
nvg = 1.10
Lvg = -5.90
alphavg = 1.95
phir = 0.01
phi = 0.590
phiwp = 0.320
phifc = 0.528
/


&DYNAMICS
cu =  0.
cv =  0.

iadv_mom = 2
iadv_tke = 2
iadv_thl = 2
iadv_qt  = 2
iadv_sv  = 52
/

&NAMNUDGE
lnudge=.true.
tnudgefac=10800
/

&SUBGRID
ldelta = .false.
cm = 0.12
cn = 0.76
ch1 = 1.
ch2 = 2.
ce1 = 0.19
ce2 = 0.51
/

&NAMMICROPHYSICS
imicro = 2          ! 2 = warm, 5=simpleice 
l_sb = .true.       ! true = Seiffert/Beheng, false = KK00
Nc_0 = 200e6        ! cloud droplet conventration
/

&NAMBULKMICROSTAT
lmicrostat = .false.
lascii = .false.
timeav = 300
dtav = 300
/

&NAMCHECKSIM
tcheck = 120
/

&NAMNETCDFSTATS
lnetcdf = .true.
lsync = .true.
/

&NAMTIMESTAT
ltimestat = .true.
lascii = .false.
dtav = 120
/

&NAMGENSTAT
lstat  = .true.
lascii = .false.
dtav   = 120
timeav = 120
/

&NAMBUDGET
lbudget = .false.
lascii  = .false.
dtav    = 120.
timeav  = 120.
/

&NAMSTATTEND
ltend  = .true.
lascii = .false.
dtav   = 120
/

&NAMRADSTAT
lstat = .true.
lascii = .false.
dtav   = 120
timeav = 120.
/

&NAMLSMSTAT
lstat = .true.
dtav = 120
timeav = 120.
/

&NAMSAMPLING
lsampcl    = .false.
lsampco    = .false.
lsampup    = .false.
lsampbuup  = .false.
lsampcldup = .false.
dtav   = 120
timeav = 120.
/

&NAMFIELDDUMP
lfielddump = .false.
dtav = 300
ldiracc = .true.
/

&NAMCROSSSECTION
lcross = .false.
dtav = 300
/

&NAMLSMCROSSSECTION
lcross = .false.
dtav = 120
crossheight = 1
/
