&RUN
iexpnr     = 001
lwarmstart = .false.
startfile  = 'initd001h00mx000y000.001'
runtime    = 10800
trestart   = 3600
ladaptive  = .true.
irandom    = 1
randthl    = 0.1
randqt     = 2.5e-5
nsv        = 0
nprocx     = 2
nprocy     = 1
/

&DOMAIN
itot       = 128
jtot       = 128
kmax       = 32
xsize      = 200e3
ysize      = 200e3
/

&PHYSICS
z0         = 1e-3
ps         = 101500.00
thls       = 299.10
lmoist     = .true.
lcoriol    = .false.
igrw_damp  = 3       ! 3 = nudge (damping) to mean profile
/

&NAMSURFACE
wtsurf     = 0.
wqsurf     = 0.
isurf      = 3
ustin      = 0.28
/

&DYNAMICS
llsadv     = .false.
lqlnr      = .false.
cu         = 0.
cv         = 0.

iadv_mom   = 52
iadv_tke   = 52
iadv_thl   = 52
iadv_qt    = 52
iadv_sv    = 52
/

&NAMSUBGRID
ldelta     = .false.
/

&NAMBUDGET
lbudget    = .false.
dtav       = 60.
timeav     = 60.
/

&NAMCHECKSIM
tcheck     = 60
/

&NAMSAMPLING
dtav       = 60.
timeav     = 60.
lsampcl    = .false.
lsampco    = .false.
lsampup    = .false.
lsampbuup  = .false.
/

&NAMTIMESTAT
ltimestat   = .true.
dtav        = 60
/

&NAMCROSSSECTION
lcross      = .true.
dtav        = 30
crossheight = 1 2 3 4
/

&NAMGENSTAT
lstat       = .true.
dtav        = 60
timeav      = 60
/

&NAMFIELDDUMP
lfielddump  = .false.
dtav        = 60
ldiracc     = .true.
/

&NAMSTATTEND
dtav = 60
ltend = .false.
/

&NAMNUDGE
lnudge = .false.
tnudgefac = 10800
/

&NAMNUDGEBOUNDARY
lnudge_boundary = .true.
nudge_offset = 4000
nudge_width = 1000
tau = 10
dt_input_lbc = 3600
lperturb_boundary = .true.
perturb_ampl = 0.1
zmax_perturb = 1000
blocksize=4
/
