&RUN
iexpnr     = 001
lwarmstart = .false.
startfile  = 'initd001h00mx000y000.001'
runtime    = 14400
trestart   = 3600
ladaptive  = .true.
irandom    = 1
randthl    = 0.1
randqt     = 2.5e-5
nsv        = 0
nprocx     = 2
nprocy     = 24
nsv        = 24
/

&DOMAIN
itot       = 1680
jtot       = 1680
kmax       = 128
xsize      = 336000
ysize      = 336000
/

&PHYSICS
z0         = 1e-3
ps         = 98000.00
thls       = 277.5
lmoist     = .true.
lcoriol    = .false.
igrw_damp  = 3       ! 3 = nudge (damping) to mean profile
/

&NAMSURFACE
wtsurf     = 0.
wqsurf     = 0.
isurf      = 2      ! 2 = Ts, calculated fluxes
!ustin      = 0.28
/

&DYNAMICS
llsadv     = .false.
lqlnr      = .false.
cu         = 0.
cv         = 0.

iadv_mom   = 52
iadv_tke   = 52
iadv_thl   = 52
iadv_qt    = 52
iadv_sv    = 52
/

&NAMMICROPHYSICS
imicro = 2          ! 2 = warm, 5=simpleice
l_sb = .true.       ! true = Seiffert/Beheng, false = KK00
Nc_0 = 300e6        ! cloud droplet conventration
/

&NAMSUBGRID
ldelta     = .false.
/

&NAMNETCDFSTATS
lnetcdf = .true.
lsync = .true.
/

&NAMBUDGET
lbudget    = .false.
dtav       = 60.
timeav     = 60.
/

&NAMCHECKSIM
tcheck     = 60
/

&NAMSAMPLING
dtav       = 60.
timeav     = 60.
lsampcl    = .false.
lsampco    = .false.
lsampup    = .false.
lsampbuup  = .false.
/

&NAMTIMESTAT
ltimestat   = .true.
dtav        = 60
/

&NAMCROSSSECTION
lcross      = .true.
lxz         = .false.
lyz         = .false.
lspan       = .false.
dtav        = 60
crossheight = 1 2
/

&NAMGENSTAT
lstat       = .true.
dtav        = 60
timeav      = 60
/

&NAMFIELDDUMP
lfielddump  = .false.
dtav        = 60
ldiracc     = .true.
/

&NAMSTATTEND
dtav = 60
ltend = .false.
/

&NAMNUDGE
lnudge = .false.
tnudgefac = 10800
/

&NAMNUDGEBOUNDARY
lnudge_boundary = .true.
nudge_offset = 1500
nudge_width = 250
tau = 10
dt_input_lbc = 3600
lperturb_boundary = .true.
perturb_ampl = 0.1
zmax_perturb = 500
blocksize=4
/
